LAMMPS (10 Feb 2015)
# 3d Lennard-Jones
units		lj
atom_style	atomic
atom_modify	map array
boundary	p p p

pair_style	morse 1.4
pair_modify shift yes mix arithmetic
#pair_modify shift yes mix arithmetic

#read_data polydisperse_morse_input.lmp.gz
read_data polydisperse_morse_input.lmp
  orthogonal box = (0 0 0) to (47.13 47.13 47.13)
  reading atoms ...
  10500 atoms

minimize 1.0e-10 1.0e-10 1000 1000
  1 neighbor list requests
  update every 1 steps, delay 0 steps, check yes
Step Temp E_pair E_mol TotEng Press
0            0 1.8208426e+23            0 1.8208426e+23 3.2437934e+22
Loop time of 0.42514 on 2 procs for 211 steps with 10500 atoms

Minimization stats:
  Stopping criterion = max force evaluations
  Energy initial, next-to-last, final =
  Force two-norm initial, final = 1.09757e+29 222.863
  Force max component initial, final = 5.39907e+28 61.1544
  Final line search alpha, max atom move = 0.000273428 0.0167214
  Iterations, force evaluations = 211 1001

Pair  time (%) = 0.205509 (48.3392)
Neigh time (%) = 0.100732 (23.6939)
Comm  time (%) = 0.0366849 (8.62889)
Outpt time (%) = 0 (0)
Other time (%) = 0.0822136 (19.338)

velocity	all create 1 87287 loop geom

fix		1 all nvt temp 1. 1. 5.

thermo 1000

timestep 0.001

dump MYDUMP all atom 1000 dump.lammpstrj
dump_modify MYDUMP sort id

dump XYZDUMP all xyz 1000 dump.xyz
dump_modify XYZDUMP sort id
run		10000
  1 neighbor list requests
  update every 1 steps, delay 10 steps, check yes
Step Temp E_pair E_mol TotEng Press
211            1  -0.34194131            0    1.1579158   0.10030319
Averages over the last 6 of 12 rows, steps 6000 to 10211:
Temp E_pair E_mol TotEng Press
0.918646 -0.108565 0 1.26927 0.102995
Loop time of 4.01142 on 2 procs for 10000 steps with 10500 atoms

Pair  time (%) = 1.86064 (46.3835)
Neigh time (%) = 0.576119 (14.362)
Comm  time (%) = 0.351506 (8.76264)
Outpt time (%) = 0.0822632 (2.05073)
Other time (%) = 1.14089 (28.4411)

write_data end.lmp  pair ii
